<?xml version="1.0" encoding="UTF-8"?>

<!-- generated on 2024-04-03 10:05:02 by Eclipse SUMO netedit Version 1.19.0
<configuration xmlns:xsi="http://www.w3.org/2001/XMLSchema-instance" xsi:noNamespaceSchemaLocation="http://sumo.dlr.de/xsd/neteditConfiguration.xsd">

    <input>
        <sumocfg-file value="/home/sztaki/Documents/ICINCO_2024_rl_crossing-/environment/sumo/intersection/1_intersection.sumocfg"/>
        <additional-files value=""/>
        <route-files value="/home/sztaki/Documents/ICINCO_2024_rl_crossing-/environment/sumo/intersection/1_intersection.rou.xml"/>
        <sumo-net-file value="/home/sztaki/Documents/ICINCO_2024_rl_crossing-/environment/sumo/intersection/1_intersection.net.xml"/>
    </input>

    <processing>
        <geometry.min-radius.fix.railways value="false"/>
        <geometry.max-grade.fix value="false"/>
        <offset.disable-normalization value="true"/>
        <lefthand value="0"/>
    </processing>

    <junctions>
        <no-turnarounds value="true"/>
        <junctions.corner-detail value="5"/>
        <junctions.limit-turn-speed value="5.50"/>
        <rectangular-lane-cut value="0"/>
    </junctions>

    <pedestrian>
        <walkingareas value="0"/>
    </pedestrian>

</configuration>
-->

<additional xmlns:xsi="http://www.w3.org/2001/XMLSchema-instance" xsi:noNamespaceSchemaLocation="http://sumo.dlr.de/xsd/additional_file.xsd">
    <tlLogic id="TLS1" type="static" programID="static" offset="0">
        <phase duration="42" state="GGgrrrGGgrrr"/>
        <phase duration="3" state="yyyrrryyyrrr"/>
        <phase duration="42" state="rrrGGgrrrGGg"/>
        <phase duration="3" state="rrryyyrrryyy"/>
    </tlLogic>
    <tlLogic id="TLS1" type="actuated" programID="actuated" offset="0">
        <phase duration="42" state="GGgrrrGGgrrr" minDur="10" maxDur="42"/>
        <phase duration="3" state="yyyrrryyyrrr"/>
        <phase duration="42" state="rrrGGgrrrGGg" minDur="10" maxDur="42"/>
        <phase duration="3" state="rrryyyrrryyy"/>
    </tlLogic>
    <tlLogic id="TLS1" type="delay_based" programID="delay" offset="0">
        <phase duration="42" state="GGgrrrGGgrrr" minDur="10" maxDur="42"/>
        <phase duration="3" state="yyyrrryyyrrr"/>
        <phase duration="42" state="rrrGGgrrrGGg" minDur="10" maxDur="42"/>
        <phase duration="3" state="rrryyyrrryyy"/>
    </tlLogic>
</additional>
