<?xml version="1.0" encoding="UTF-8"?>

<!-- generated on 2024-03-20 17:04:27 by Eclipse SUMO netedit Version 1.19.0
-->

<routes xmlns:xsi="http://www.w3.org/2001/XMLSchema-instance" xsi:noNamespaceSchemaLocation="http://sumo.dlr.de/xsd/routes_file.xsd">
    <!-- Vehicles, persons and containers (sorted by depart) -->
    <flow id="f_0" begin="0.00" from="lane_0_1" to="-E3" end="3600.00" vehsPerHour="52"/>
    <flow id="f_1" begin="0.00" from="lane_0_1" to="-E4" end="3600.00" vehsPerHour="52"/>
    <flow id="f_10" begin="0.00" from="lane_0_2" to="-E0" end="3600.00" vehsPerHour="52"/>
    <flow id="f_11" begin="0.00" from="lane_1_2" to="E2" end="3600.00" vehsPerHour="52"/>
    <flow id="f_12" begin="0.00" from="lane_1_2" to="-E5" end="3600.00" vehsPerHour="52"/>
    <flow id="f_13" begin="0.00" from="lane_1_2" to="-E6" end="3600.00" vehsPerHour="52"/>
    <flow id="f_14" begin="0.00" from="lane_1_2" to="-E0" end="3600.00" vehsPerHour="52"/>
    <flow id="f_15" begin="0.00" from="lane_1_2" to="-E3" end="3600.00" vehsPerHour="52"/>
    <flow id="f_16" begin="0.00" from="lane_1_3" to="-E5" end="3600.00" vehsPerHour="52"/>
    <flow id="f_17" begin="0.00" from="lane_1_3" to="-E6" end="3600.00" vehsPerHour="52"/>
    <flow id="f_18" begin="0.00" from="lane_1_3" to="-E0" end="3600.00" vehsPerHour="52"/>
    <flow id="f_19" begin="0.00" from="lane_1_3" to="-E3" end="3600.00" vehsPerHour="52"/>
    <flow id="f_2" begin="0.00" from="lane_0_1" to="E2" end="3600.00" vehsPerHour="52"/>
    <flow id="f_20" begin="0.00" from="lane_1_3" to="-E4" end="3600.00" vehsPerHour="52"/>
    <flow id="f_21" begin="0.00" from="lane_1_0" to="-E6" end="3600.00" vehsPerHour="52"/>
    <flow id="f_22" begin="0.00" from="lane_1_0" to="-E0" end="3600.00" vehsPerHour="52"/>
    <flow id="f_23" begin="0.00" from="lane_1_0" to="-E3" end="3600.00" vehsPerHour="52"/>
    <flow id="f_24" begin="0.00" from="lane_1_0" to="-E4" end="3600.00" vehsPerHour="52"/>
    <flow id="f_25" begin="0.00" from="lane_1_0" to="E2" end="3600.00" vehsPerHour="52"/>
    <flow id="f_26" begin="0.00" from="lane_0_0" to="-E0" end="3600.00" vehsPerHour="52"/>
    <flow id="f_27" begin="0.00" from="lane_0_0" to="-E3" end="3600.00" vehsPerHour="52"/>
    <flow id="f_28" begin="0.00" from="lane_0_0" to="-E4" end="3600.00" vehsPerHour="52"/>
    <flow id="f_29" begin="0.00" from="lane_0_0" to="E2" end="3600.00" vehsPerHour="52"/>
    <flow id="f_3" begin="0.00" from="lane_0_1" to="-E5" end="3600.00" vehsPerHour="52"/>
    <flow id="f_30" begin="0.00" from="lane_0_0" to="-E5" end="3600.00" vehsPerHour="52"/>
    <flow id="f_4" begin="0.00" from="lane_0_1" to="-E6" end="3600.00" vehsPerHour="52"/>
    <flow id="f_5" begin="0.00" from="lane_0_2" to="-E6" end="3600.00" vehsPerHour="52"/>
    <flow id="f_6" begin="0.00" from="lane_0_2" to="-E4" end="3600.00" vehsPerHour="52"/>
    <flow id="f_7" begin="0.00" from="lane_0_2" to="E2" end="3600.00" vehsPerHour="52"/>
    <flow id="f_8" begin="0.00" from="lane_0_2" to="-E5" end="3600.00" vehsPerHour="52"/>
    <flow id="f_9" begin="0.00" from="lane_0_2" to="-E6" end="3600.00" vehsPerHour="52"/>
</routes>
