<?xml version="1.0" encoding="UTF-8"?>

<!-- generated on 2024-03-21 11:29:43 by Eclipse SUMO sumo Version 1.19.0
-->

<configuration xmlns:xsi="http://www.w3.org/2001/XMLSchema-instance" xsi:noNamespaceSchemaLocation="http://sumo.dlr.de/xsd/sumoConfiguration.xsd">

    <input>
        <net-file value="4_intersection.net.xml"/>
        <route-files value="4_intersection.rou.xml"/>
        <additional-files value="4_intersection_programs.add.xml"/>
    </input>

</configuration>
